Carbon_emission/Feeders/8500-Node/IEEE8500_VLN_Node.Txt

LINE-GROUND and LINE-LINE VOLTAGES BY BUS & NODE

Bus                  Node    VLN (kV)   Angle      pu     Base kV    Node-Node   VLL (kV)  Angle      pu

SOURCEBUS .......... 1       69.715 /_    0.0      1.05   115.000        1-2     120.75 /_   30.0      1.05
   -                 2       69.715 /_ -120.0      1.05   115.000        2-3     120.75 /_  -90.0      1.05
   -                 3       69.715 /_  120.0      1.05   115.000        3-1     120.75 /_  150.0      1.05
_HVMV_SUB_LSB ...... 1       7.5766 /_  -29.4    1.0524    12.470        1-2     13.072 /_    0.8    1.0483
   -                 2       7.5537 /_ -148.9    1.0492    12.470        2-3     13.098 /_ -118.9    1.0503
   -                 3       7.5702 /_   91.1    1.0515    12.470        3-1     13.149 /_  120.8    1.0544
HVMV_SUB_48332 ..... 1       7.5766 /_  -29.4    1.0524    12.470        1-2     13.072 /_    0.8    1.0483
   -                 2       7.5537 /_ -148.9    1.0492    12.470        2-3     13.098 /_ -118.9    1.0503
   -                 3       7.5702 /_   91.1    1.0515    12.470        3-1     13.149 /_  120.8    1.0544
M1009763 ........... 1       7.2532 /_  -31.7    1.0074    12.470        1-2     12.513 /_   -0.6    1.0035
   -                 2       7.3345 /_ -149.8    1.0187    12.470        2-3     12.386 /_ -116.9   0.99323
   -                 3       7.3976 /_   95.8    1.0275    12.470        3-1     13.136 /_  121.8    1.0534
L2673322 ........... 1       3.6752 /_   35.4   0.51048    12.470        1-2     10.999 /_   31.9   0.88207
   -                 2       7.3344 /_ -149.8    1.0187    12.470        2-3     10.999 /_ -148.1   0.88207
   -                 3       3.6752 /_   35.4   0.51048    12.470        3-1 1.0168E-015 /_ -116.6 8.1543E-017
   -                 4   1.6549E-023 /_   35.4 2.2986E-024    12.470
M1069148 ........... 3       7.5051 /_   91.2    1.0424    12.470
L2673309 ........... 3        7.505 /_   91.2    1.0424    12.470
M1069588 ........... 2       7.5173 /_ -148.6    1.0441    12.470
L2804270 ........... 2       7.5173 /_ -148.6    1.0441    12.470
M3036164 ........... 2       7.2732 /_ -149.6    1.0102    12.470
L2935553 ........... 2       7.2724 /_ -149.6    1.0101    12.470
M1209749 ........... 2       7.5947 /_ -148.5    1.0549    12.470
L2748840 ........... 2       7.5946 /_ -148.5    1.0549    12.470
M1108264 ........... 2       7.4938 /_ -149.0    1.0409    12.470
M1108263 ........... 2       7.4935 /_ -149.0    1.0408    12.470
L3085398 ........... 1       7.2858 /_  -31.7     1.012    12.470        1-2     12.564 /_   -0.5    1.0076
   -                 2       7.3668 /_ -149.7    1.0232    12.470        2-3     12.421 /_ -116.9   0.99604
   -                 3       7.3999 /_   95.7    1.0278    12.470        3-1     13.166 /_  121.8    1.0558
M1026891 ........... 1       7.2834 /_  -31.7    1.0116    12.470        1-2     12.559 /_   -0.5    1.0072
   -                 2       7.3625 /_ -149.8    1.0226    12.470        2-3     12.416 /_ -116.9   0.99569
   -                 3       7.3996 /_   95.7    1.0278    12.470        3-1     13.164 /_  121.8    1.0556
L3216367 ........... 1         7.34 /_  -31.3    1.0195    12.470        1-2     12.604 /_   -0.3    1.0107
   -                 2       7.3486 /_ -149.5    1.0207    12.470        2-3     12.419 /_ -116.9   0.99588
   -                 3       7.3751 /_   95.5    1.0244    12.470        3-1     13.157 /_  122.1    1.0551
M1069468 ........... 1       7.3394 /_  -31.3    1.0194    12.470        1-2     12.603 /_   -0.3    1.0107
   -                 2       7.3475 /_ -149.5    1.0205    12.470        2-3     12.417 /_ -116.9   0.99578
   -                 3       7.3749 /_   95.5    1.0244    12.470        3-1     13.156 /_  122.1     1.055
M1142800 ........... 2       7.6169 /_ -148.0     1.058    12.470
M1142799 ........... 2       7.6168 /_ -148.0    1.0579    12.470
M1047592 ........... 1       7.3839 /_  -31.3    1.0256    12.470        1-2     12.677 /_   -0.3    1.0166
   -                 2       7.4036 /_ -149.4    1.0283    12.470        2-3     12.491 /_ -116.9    1.0017
   -                 3       7.4084 /_   95.6     1.029    12.470        3-1     13.238 /_  122.1    1.0616
P827512 ............ 3       7.4084 /_   95.6     1.029    12.470
M1047339 ........... 1       7.4364 /_  -30.5    1.0329    12.470        1-2     12.832 /_   -0.3     1.029
   -                 2        7.415 /_ -150.1    1.0299    12.470        2-3     12.905 /_ -119.5    1.0348
   -                 3       7.5328 /_   90.6    1.0463    12.470        3-1     13.033 /_  119.8    1.0452
P895104 ............ 1       7.4364 /_  -30.5    1.0329    12.470
M1026915 ........... 1       7.2842 /_  -31.7    1.0118    12.470        1-2     12.564 /_   -0.5    1.0076
   -                 2        7.369 /_ -149.7    1.0235    12.470        2-3     12.422 /_ -116.9   0.99616
   -                 3       7.3995 /_   95.7    1.0278    12.470        3-1     13.165 /_  121.8    1.0557
M1026920 ........... 1       7.2825 /_  -31.7    1.0115    12.470        1-2     12.562 /_   -0.5    1.0074
   -                 2       7.3686 /_ -149.7    1.0235    12.470        2-3     12.421 /_ -116.9    0.9961
   -                 3       7.3992 /_   95.7    1.0277    12.470        3-1     13.163 /_  121.8    1.0556
N1138596 ........... 1       7.3229 /_  -31.2    1.0171    12.470
L3254207 ........... 1       7.3226 /_  -31.2    1.0171    12.470
M1069464 ........... 1       7.3386 /_  -31.3    1.0193    12.470        1-2     12.601 /_   -0.4    1.0105
   -                 2       7.3454 /_ -149.5    1.0203    12.470        2-3     12.415 /_ -116.9   0.99559
   -                 3       7.3747 /_   95.5    1.0243    12.470        3-1     13.154 /_  122.1    1.0549
P873787 ............ 2       7.3454 /_ -149.5    1.0203    12.470
N1144665 ........... 1       7.4071 /_  -31.2    1.0288    12.470        1-2     12.702 /_   -0.2    1.0186
   -                 2       7.4076 /_ -149.2    1.0289    12.470        2-3     12.505 /_ -116.8    1.0028
   -                 3       7.4078 /_   95.6    1.0289    12.470        3-1     13.247 /_  122.2    1.0623
M1047515 ........... 1       7.4027 /_  -31.2    1.0282    12.470        1-2     12.697 /_   -0.2    1.0182
   -                 2        7.406 /_ -149.2    1.0287    12.470        2-3     12.501 /_ -116.8    1.0025
   -                 3       7.4057 /_   95.6    1.0286    12.470        3-1     13.242 /_  122.2    1.0619
N1137002 ........... 1       7.3743 /_  -31.2    1.0243    12.470
M1047707 ........... 1       7.3741 /_  -31.2    1.0242    12.470
L2729406 ........... 3       7.5087 /_   92.1    1.0429    12.470
L2897768 ........... 3       7.5083 /_   92.1    1.0429    12.470
L3649301 ........... 1       7.3563 /_  -31.5    1.0218    12.470
L3649302 ........... 1       7.3558 /_  -31.5    1.0217    12.470
L2970842 ........... 2       7.5083 /_ -149.0    1.0429    12.470
M1089113 ........... 2       7.5074 /_ -149.0    1.0428    12.470
M1047312 ........... 1       7.4203 /_  -30.5    1.0307    12.470        1-2     12.805 /_   -0.4    1.0268
   -                 2       7.3964 /_ -150.1    1.0273    12.470        2-3     12.884 /_ -119.5    1.0332
   -                 3       7.5308 /_   90.6     1.046    12.470        3-1     13.018 /_  119.8    1.0439
P893163 ............ 1       7.4203 /_  -30.5    1.0307    12.470
L2822871 ........... 1       7.3127 /_  -31.6    1.0157    12.470        1-2     12.599 /_   -0.4    1.0104
   -                 2       7.3865 /_ -149.6     1.026    12.470        2-3     12.448 /_ -116.9   0.99824
   -                 3       7.4012 /_   95.7     1.028    12.470        3-1     13.188 /_  121.9    1.0576
   -                 4   2.2476E-023 /_  107.1 3.1219E-024    12.470
M1026872 ........... 1       7.3105 /_  -31.6    1.0154    12.470        1-2     12.596 /_   -0.4    1.0101
   -                 2       7.3851 /_ -149.6    1.0258    12.470        2-3     12.446 /_ -116.9   0.99807
   -                 3        7.401 /_   95.7     1.028    12.470        3-1     13.186 /_  121.9    1.0574
M1026312 ........... 2       7.3152 /_ -150.3    1.0161    12.470
L2973163 ........... 2       7.3137 /_ -150.3    1.0159    12.470
L3728038 ........... 1       7.3424 /_  -31.3    1.0198    12.470
L3728039 ........... 1       7.3421 /_  -31.3    1.0198    12.470
M1069567 ........... 2       7.5239 /_ -148.5    1.0451    12.470
M1069582 ........... 2       7.5192 /_ -148.6    1.0444    12.470
N1140830 ........... 1         7.26 /_  -31.4    1.0084    12.470
L3216351 ........... 1         7.26 /_  -31.4    1.0084    12.470
L2952007 ........... 3       7.5027 /_   91.2    1.0421    12.470
L2861158 ........... 3       7.5026 /_   91.2    1.0421    12.470
N1140827 ........... 1        7.264 /_  -31.4    1.0089    12.470        1-2     12.561 /_    0.0    1.0073
   -                 2       7.4036 /_ -149.2    1.0283    12.470        2-3     12.443 /_ -116.9   0.99782
   -                 3       7.3511 /_   95.8     1.021    12.470        3-1     13.091 /_  122.0    1.0498
M1026726 ........... 1        7.264 /_  -31.4    1.0089    12.470        1-2     12.561 /_    0.0    1.0073
   -                 2       7.4036 /_ -149.2    1.0283    12.470        2-3     12.443 /_ -116.9   0.99782
   -                 3       7.3511 /_   95.8     1.021    12.470        3-1     13.091 /_  122.0    1.0498
L2730106 ........... 1       7.2953 /_  -28.1    1.0133    12.470        1-2     12.915 /_    3.4    1.0357
   -                 2       7.7047 /_ -146.9    1.0702    12.470        2-3     13.091 /_ -116.1    1.0498
   -                 3       7.5899 /_   95.3    1.0542    12.470        3-1     13.109 /_  123.0    1.0513
   -                 4   1.8147E-023 /_  100.5 2.5206E-024    12.470
N1142099 ........... 1       7.2937 /_  -28.1    1.0131    12.470        1-2     12.914 /_    3.4    1.0356
   -                 2       7.7054 /_ -146.9    1.0703    12.470        2-3     13.091 /_ -116.0    1.0498
   -                 3         7.59 /_   95.4    1.0542    12.470        3-1     13.109 /_  123.0    1.0512
M1026658 ........... 1       7.2586 /_  -31.4    1.0082    12.470        1-2     12.555 /_    0.0    1.0069
   -                 2        7.405 /_ -149.2    1.0285    12.470        2-3     12.439 /_ -116.9   0.99753
   -                 3       7.3444 /_   95.8    1.0201    12.470        3-1     13.081 /_  122.0     1.049
L3172805 ........... 1       7.2585 /_  -31.4    1.0082    12.470
P895112 ............ 1       7.4623 /_  -28.7    1.0365    12.470
L3048962 ........... 1       7.4623 /_  -28.7    1.0365    12.470        1-2     11.192 /_  -27.0   0.89751
   -                 2       3.7395 /_  156.4    0.5194    12.470        2-3 1.875E-015 /_ -166.0 1.5036E-016
   -                 3       3.7395 /_  156.4    0.5194    12.470        3-1     11.192 /_  153.0   0.89751
   -                 4   1.6488E-023 /_  156.4 2.2902E-024    12.470
L2991914 ........... 1       7.3658 /_  -31.2    1.0231    12.470        1-2     12.654 /_   -0.2    1.0148
   -                 2       7.3959 /_ -149.2    1.0273    12.470        2-3     12.476 /_ -116.8    1.0005
   -                 3       7.3886 /_   95.7    1.0263    12.470        3-1     13.198 /_  122.2    1.0584
M1047503 ........... 1       7.3633 /_  -31.2    1.0227    12.470        1-2     12.652 /_   -0.2    1.0146
   -                 2       7.3961 /_ -149.2    1.0273    12.470        2-3     12.475 /_ -116.8    1.0004
   -                 3       7.3875 /_   95.7    1.0261    12.470        3-1     13.195 /_  122.2    1.0581
M1047751 ........... 1        7.336 /_  -31.1     1.019    12.470
L2973154 ........... 1        7.336 /_  -31.1     1.019    12.470
L3010565 ........... 3       7.5046 /_   91.2    1.0424    12.470
L2897775 ........... 3       7.5045 /_   91.2    1.0424    12.470
M1125955 ........... 3       7.5868 /_   94.0    1.0538    12.470
M1125957 ........... 3       7.5868 /_   94.0    1.0538    12.470
M1069640 ........... 2       7.5075 /_ -148.6    1.0428    12.470
L2804269 ........... 2       7.5072 /_ -148.6    1.0427    12.470
M1026702 ........... 1       7.2807 /_  -31.4    1.0113    12.470        1-2     12.577 /_    0.0    1.0086
   -                 2        7.403 /_ -149.2    1.0283    12.470        2-3      12.45 /_ -116.8   0.99836
   -                 3       7.3585 /_   95.8    1.0221    12.470        3-1      13.11 /_  122.0    1.0513
N1139551 ........... 1       7.2725 /_  -31.4    1.0101    12.470        1-2      12.57 /_    0.0     1.008
   -                 2       7.4037 /_ -149.2    1.0284    12.470        2-3     12.447 /_ -116.8   0.99818
   -                 3       7.3559 /_   95.8    1.0217    12.470        3-1     13.101 /_  122.0    1.0506
N1136355 ........... 2       7.5436 /_ -148.5    1.0478    12.470
L2783231 ........... 2         7.54 /_ -148.5    1.0473    12.470
L2748143 ........... 1       7.2952 /_  -29.9    1.0133    12.470
L3251854 ........... 1       7.2951 /_  -29.9    1.0133    12.470
M1069610 ........... 2       7.5116 /_ -148.6    1.0433    12.470
M1069600 ........... 2       7.5115 /_ -148.6    1.0433    12.470
M1069424 ........... 1       7.3316 /_  -31.2    1.0183    12.470        1-2     12.587 /_   -0.4    1.0094
   -                 2       7.3294 /_ -149.6     1.018    12.470        2-3     12.398 /_ -116.9   0.99419
   -                 3       7.3732 /_   95.5    1.0241    12.470        3-1     13.144 /_  122.0     1.054
L2935549 ........... 1       7.3306 /_  -31.2    1.0182    12.470        1-2     12.586 /_   -0.4    1.0093
   -                 2       7.3272 /_ -149.6    1.0177    12.470        2-3     12.395 /_ -116.9     0.994
   -                 3       7.3732 /_   95.5    1.0241    12.470        3-1     13.143 /_  122.0    1.0539
P895089 ............ 3       7.5145 /_   95.6    1.0437    12.470
L3235242 ........... 3       7.5143 /_   95.6    1.0437    12.470
M1026795 ........... 1       7.3392 /_  -31.3    1.0194    12.470        1-2      12.63 /_   -0.1    1.0128
   -                 2       7.3982 /_ -149.2    1.0276    12.470        2-3     12.466 /_ -116.8    0.9997
   -                 3       7.3771 /_   95.7    1.0247    12.470        3-1     13.169 /_  122.1     1.056
N1140522 ........... 3       7.3771 /_   95.7    1.0247    12.470
L3030199 ........... 1       7.5148 /_  -28.8    1.0438    12.470        1-2     13.051 /_    1.8    1.0466
   -                 2        7.619 /_ -148.0    1.0583    12.470        2-3     13.142 /_ -117.8    1.0539
   -                 3       7.5939 /_   92.5    1.0548    12.470        3-1     13.171 /_  121.7    1.0562
M1125934 ........... 1       7.5156 /_  -28.8    1.0439    12.470        1-2     13.052 /_    1.8    1.0466
   -                 2       7.6186 /_ -148.0    1.0582    12.470        2-3     13.142 /_ -117.8    1.0539
   -                 3        7.594 /_   92.5    1.0548    12.470        3-1     13.171 /_  121.7    1.0562
   -                 4   2.4412E-005 /_  113.9 3.3907E-006    12.470
M1069189 ........... 1       7.4944 /_  -29.9     1.041    12.470        1-2     12.931 /_    0.4     1.037
   -                 2       7.4874 /_ -149.2      1.04    12.470        2-3     12.968 /_ -119.0      1.04
   -                 3       7.5156 /_   91.1    1.0439    12.470        3-1     13.067 /_  120.6    1.0479
L2860487 ........... 3       7.5156 /_   91.1    1.0439    12.470
221-312488 ......... 1       7.3207 /_  -28.3    1.0168    12.470        1-2     12.917 /_    3.1    1.0358
   -                 2       7.6767 /_ -147.2    1.0663    12.470        2-3      13.08 /_ -116.4    1.0489
   -                 3       7.5806 /_   94.8    1.0529    12.470        3-1     13.101 /_  122.7    1.0506
M1089183 ........... 1       7.3206 /_  -28.3    1.0168    12.470        1-2     12.917 /_    3.1    1.0358
   -                 2       7.6767 /_ -147.2    1.0663    12.470        2-3      13.08 /_ -116.4    1.0489
   -                 3       7.5806 /_   94.8    1.0529    12.470        3-1     13.101 /_  122.7    1.0506
M1108464 ........... 2       7.6752 /_ -147.2    1.0661    12.470
L3102286 ........... 2        7.675 /_ -147.2     1.066    12.470
F739845 ............ 1       7.4117 /_  -30.5    1.0295    12.470        1-2     12.788 /_   -0.4    1.0255
   -                 2       7.3826 /_ -150.1    1.0254    12.470        2-3     12.869 /_ -119.4     1.032
   -                 3       7.5297 /_   90.6    1.0459    12.470        3-1     13.009 /_  119.8    1.0432
293471 ............. 1       7.4117 /_  -30.5    1.0295    12.470        1-2     12.788 /_   -0.4    1.0255
   -                 2       7.3826 /_ -150.1    1.0254    12.470        2-3     12.869 /_ -119.4     1.032
   -                 3       7.5297 /_   90.6    1.0459    12.470        3-1     13.009 /_  119.8    1.0432
P827499 ............ 1       7.3295 /_  -31.2     1.018    12.470
N1139254 ........... 1       7.3295 /_  -31.2     1.018    12.470
M1026657 ........... 1        7.255 /_  -31.4    1.0077    12.470
M1026656 ........... 1       7.2548 /_  -31.4    1.0077    12.470
M1108299 ........... 2       7.6107 /_ -148.1    1.0571    12.470
M1108300 ........... 2       7.6107 /_ -148.1    1.0571    12.470
L3198355 ........... 2       7.6105 /_ -148.1    1.0571    12.470
L2805037 ........... 2       7.6105 /_ -148.1    1.0571    12.470
N1137994 ........... 3       7.3757 /_   95.5    1.0245    12.470
M1069484 ........... 3       7.3751 /_   95.5    1.0244    12.470
L2860504 ........... 1       7.2609 /_  -31.4    1.0085    12.470
L2860493 ........... 1       7.2606 /_  -31.4    1.0085    12.470
M1026783 ........... 1       7.3317 /_  -31.3    1.0184    12.470        1-2     12.623 /_   -0.1    1.0123
   -                 2       7.3989 /_ -149.2    1.0277    12.470        2-3     12.464 /_ -116.8   0.99953
   -                 3       7.3748 /_   95.7    1.0243    12.470        3-1     13.161 /_  122.1    1.0554
M1026780 ........... 1       7.3305 /_  -31.3    1.0182    12.470        1-2     12.622 /_   -0.1    1.0122
   -                 2        7.399 /_ -149.2    1.0277    12.470        2-3     12.464 /_ -116.8   0.99951
   -                 3       7.3744 /_   95.7    1.0243    12.470        3-1      13.16 /_  122.1    1.0553
P895111 ............ 3       7.5884 /_   93.4     1.054    12.470
L2895496 ........... 3       7.5882 /_   93.4     1.054    12.470
N1140819 ........... 1       7.2668 /_  -31.4    1.0093    12.470        1-2     12.564 /_    0.0    1.0075
   -                 2       7.4037 /_ -149.2    1.0283    12.470        2-3     12.444 /_ -116.8   0.99795
   -                 3       7.3529 /_   95.8    1.0213    12.470        3-1     13.094 /_  122.0    1.0501
M1026700 ........... 1       7.2659 /_  -31.4    1.0092    12.470        1-2     12.563 /_    0.0    1.0075
   -                 2       7.4036 /_ -149.2    1.0283    12.470        2-3     12.444 /_ -116.9   0.99791
   -                 3       7.3525 /_   95.8    1.0212    12.470        3-1     13.093 /_  122.0      1.05
M1089173 ........... 3       7.5101 /_   92.1    1.0431    12.470
L2935551 ........... 3       7.5097 /_   92.1    1.0431    12.470
M1026344 ........... 1       7.3895 /_  -30.5    1.0264    12.470
M1026364 ........... 1       7.3893 /_  -30.5    1.0264    12.470
L2879070 ........... 1       7.3739 /_  -31.4    1.0242    12.470        1-2     12.666 /_   -0.3    1.0157
   -                 2       7.4024 /_ -149.4    1.0282    12.470        2-3     12.486 /_ -116.9    1.0013
   -                 3       7.4067 /_   95.7    1.0288    12.470        3-1      13.23 /_  122.1     1.061
L3216345 ........... 1       7.3671 /_  -31.4    1.0233    12.470        1-2     12.659 /_   -0.3    1.0152
   -                 2       7.4018 /_ -149.4    1.0281    12.470        2-3     12.483 /_ -116.9     1.001
   -                 3        7.406 /_   95.7    1.0287    12.470        3-1     13.226 /_  122.0    1.0606
M1069428 ........... 1       7.3325 /_  -31.2    1.0185    12.470        1-2     12.589 /_   -0.4    1.0095
   -                 2       7.3312 /_ -149.5    1.0183    12.470        2-3       12.4 /_ -116.9   0.99435
   -                 3       7.3732 /_   95.5    1.0241    12.470        3-1     13.145 /_  122.0    1.0541
N1139257 ........... 2       7.3312 /_ -149.5    1.0183    12.470
L2991919 ........... 1       7.3877 /_  -30.5    1.0261    12.470
M1026361 ........... 1       7.3865 /_  -30.5     1.026    12.470
N1147857 ........... 1       7.2531 /_  -31.7    1.0074    12.470
M1009742 ........... 1        7.252 /_  -31.7    1.0073    12.470
Q14412 ............. 1        7.432 /_  -30.5    1.0323    12.470        1-2     12.825 /_   -0.3    1.0285
   -                 2       7.4102 /_ -150.1    1.0293    12.470        2-3     12.899 /_ -119.5    1.0344
   -                 3       7.5323 /_   90.6    1.0462    12.470        3-1     13.029 /_  119.8    1.0449
M1047325 ........... 1       7.4307 /_  -30.5    1.0321    12.470        1-2     12.823 /_   -0.3    1.0283
   -                 2       7.4089 /_ -150.1    1.0291    12.470        2-3     12.898 /_ -119.5    1.0343
   -                 3       7.5321 /_   90.6    1.0462    12.470        3-1     13.028 /_  119.8    1.0448
N1139263 ........... 1       7.3394 /_  -31.3    1.0194    12.470
L3048227 ........... 1       7.3394 /_  -31.3    1.0194    12.470
P827506 ............ 1       7.3394 /_  -31.3    1.0194    12.470
M1069469 ........... 1       7.3394 /_  -31.3    1.0194    12.470
M1027019 ........... 2       7.3585 /_ -149.8    1.0221    12.470
L2785522 ........... 2       7.3584 /_ -149.8    1.0221    12.470
L3216338 ........... 2       7.3009 /_ -149.9    1.0141    12.470
L2973146 ........... 2       7.3009 /_ -149.9    1.0141    12.470
M3037452 ........... 1        7.383 /_  -30.5    1.0255    12.470
L2973164 ........... 1        7.383 /_  -30.5    1.0255    12.470
L3120376 ........... 1       7.3257 /_  -31.6    1.0175    12.470
M1026925 ........... 1       7.3246 /_  -31.6    1.0174    12.470
M1047612 ........... 3       7.4103 /_   95.6    1.0293    12.470
P828360 ............ 3       7.4103 /_   95.6    1.0293    12.470
M1089195 ........... 3       7.5142 /_   95.6    1.0437    12.470
L3141393 ........... 3        7.514 /_   95.6    1.0437    12.470
M1026946 ........... 2        7.361 /_ -149.8    1.0224    12.470
M1026940 ........... 2       7.3607 /_ -149.8    1.0224    12.470
M1047471 ........... 2       7.2474 /_ -149.8    1.0066    12.470
L3216349 ........... 2       7.2474 /_ -149.8    1.0066    12.470
M1047401 ........... 1       7.2184 /_  -31.5    1.0026    12.470
L2748132 ........... 1       7.2184 /_  -31.5    1.0026    12.470
L3122820 ........... 1       7.2391 /_  -31.5    1.0055    12.470
L3141398 ........... 1        7.239 /_  -31.5    1.0055    12.470
M1108360 ........... 3       7.5468 /_   92.2    1.0482    12.470
L3048968 ........... 3       7.5467 /_   92.2    1.0482    12.470
L2801950 ........... 3       7.4967 /_   91.1    1.0413    12.470
M1069224 ........... 3       7.4964 /_   91.1    1.0412    12.470
L2766746 ........... 3       7.3731 /_   95.8    1.0241    12.470
M1027073 ........... 3       7.3724 /_   95.8     1.024    12.470
M1142873 ........... 3       7.5881 /_   93.4     1.054    12.470
M1069181 ........... 1       7.4811 /_  -30.0    1.0391    12.470
L2973151 ........... 1       7.4808 /_  -30.0    1.0391    12.470        1-2      11.22 /_  -28.3   0.89973
   -                 2       3.7487 /_  155.1   0.52069    12.470        2-3 8.1981E-016 /_  -56.3 6.5742E-017
   -                 3       3.7487 /_  155.1   0.52069    12.470        3-1      11.22 /_  151.7   0.89973
   -                 4   1.648E-023 /_  155.1 2.2891E-024    12.470
L3179682 ........... 3       7.5908 /_   92.2    1.0543    12.470
L2786274 ........... 3       7.5908 /_   92.2    1.0543    12.470
L3066816 ........... 1       7.2594 /_  -31.4    1.0083    12.470
M1026667 ........... 1       7.2593 /_  -31.4    1.0083    12.470
M1108529 ........... 1       7.4614 /_  -28.4    1.0364    12.470        1-2     12.894 /_    2.4     1.034
   -                 2       7.5267 /_ -147.1    1.0454    12.470        2-3     12.831 /_ -115.8    1.0289
   -                 3       7.4994 /_   95.6    1.0416    12.470        3-1     13.211 /_  123.5    1.0594
M1108532 ........... 1       7.4593 /_  -28.5    1.0361    12.470        1-2     12.892 /_    2.4    1.0339
   -                 2        7.527 /_ -147.2    1.0455    12.470        2-3      12.83 /_ -115.8    1.0289
   -                 3       7.4996 /_   95.6    1.0417    12.470        3-1     13.211 /_  123.5    1.0594
L2766723 ........... 1       7.2604 /_  -31.4    1.0084    12.470
L3122822 ........... 1       7.2603 /_  -31.4    1.0084    12.470
L2673312 ........... 1       7.2356 /_  -31.7     1.005    12.470
L3235247 ........... 1       7.2355 /_  -31.7     1.005    12.470
M1166391 ........... 3       7.5099 /_   91.2    1.0431    12.470
L3254873 ........... 3        7.508 /_   91.2    1.0428    12.470
L2861157 ........... 3       7.5279 /_   91.3    1.0456    12.470
P901951 ............ 3       7.5262 /_   91.3    1.0454    12.470
M1047346 ........... 1       7.4433 /_  -30.5    1.0339    12.470        1-2     12.843 /_   -0.3    1.0299
   -                 2       7.4216 /_ -150.1    1.0308    12.470        2-3     12.912 /_ -119.5    1.0354
   -                 3       7.5336 /_   90.5    1.0464    12.470        3-1      13.04 /_  119.8    1.0457
M1047345 ........... 1       7.4415 /_  -30.5    1.0336    12.470        1-2      12.84 /_   -0.3    1.0297
   -                 2       7.4199 /_ -150.1    1.0306    12.470        2-3      12.91 /_ -119.5    1.0353
   -                 3       7.5334 /_   90.6    1.0464    12.470        3-1     13.038 /_  119.8    1.0456
L2989596 ........... 2        7.529 /_ -148.5    1.0458    12.470
L2822873 ........... 2        7.529 /_ -148.5    1.0458    12.470
M1108328 ........... 3       7.5785 /_   92.2    1.0526    12.470
L2875754 ........... 3       7.5785 /_   92.2    1.0526    12.470
L2786204 ........... 3       7.5591 /_   91.4    1.0499    12.470
M1209819 ........... 3        7.557 /_   91.4    1.0496    12.470
P901972 ............ 1       7.2518 /_  -31.7    1.0072    12.470
M1009726 ........... 1       7.2499 /_  -31.7     1.007    12.470
M1047702 ........... 1       7.3743 /_  -31.2    1.0243    12.470
N1137001 ........... 1       7.3743 /_  -31.2    1.0243    12.470
L2767340 ........... 1        7.351 /_  -28.3     1.021    12.470        1-2     12.947 /_    2.9    1.0383
   -                 2       7.6806 /_ -147.3    1.0668    12.470        2-3       13.1 /_ -116.6    1.0505
   -                 3       7.5876 /_   94.6    1.0539    12.470        3-1     13.122 /_  122.6    1.0523
M3037449 ........... 1        7.351 /_  -28.3     1.021    12.470        1-2     12.947 /_    2.9    1.0383
   -                 2       7.6806 /_ -147.3    1.0668    12.470        2-3       13.1 /_ -116.6    1.0505
   -                 3       7.5876 /_   94.6    1.0539    12.470        3-1     13.122 /_  122.6    1.0523
M1047457 ........... 2       7.2522 /_ -149.8    1.0073    12.470
L2710546 ........... 2       7.2516 /_ -149.8    1.0072    12.470
L2674027 ........... 1       7.2499 /_  -28.3     1.007    12.470        1-2     12.881 /_    3.4     1.033
   -                 2       7.7176 /_ -147.0     1.072    12.470        2-3     13.081 /_ -116.0     1.049
   -                 3        7.593 /_   95.6    1.0547    12.470        3-1     13.099 /_  122.9    1.0505
L2692633 ........... 1       7.2442 /_  -28.3    1.0062    12.470        1-2     12.876 /_    3.4    1.0326
   -                 2       7.7186 /_ -147.1    1.0721    12.470        2-3      13.08 /_ -116.0    1.0489
   -                 3       7.5934 /_   95.6    1.0547    12.470        3-1     13.098 /_  122.9    1.0504
N1142108 ........... 1       7.5239 /_  -28.9     1.045    12.470
L2674051 ........... 1       7.5238 /_  -28.9     1.045    12.470
M1069135 ........... 1       7.4545 /_  -30.5    1.0354    12.470        1-2      12.86 /_   -0.3    1.0313
   -                 2       7.4314 /_ -150.0    1.0322    12.470        2-3     12.923 /_ -119.5    1.0363
   -                 3       7.5342 /_   90.6    1.0465    12.470        3-1     13.049 /_  119.9    1.0465
R18242 ............. 1       7.4528 /_  -30.5    1.0352    12.470        1-2     12.858 /_   -0.3    1.0311
   -                 2       7.4301 /_ -150.0     1.032    12.470        2-3     12.922 /_ -119.5    1.0363
   -                 3       7.5351 /_   90.5    1.0466    12.470        3-1     13.049 /_  119.8    1.0464
M1047534 ........... 1       7.4782 /_  -31.0    1.0387    12.470        1-2     12.788 /_   -0.1    1.0255
   -                 2       7.4309 /_ -149.1    1.0321    12.470        2-3     12.558 /_ -116.7    1.0071
   -                 3       7.4342 /_   95.6    1.0326    12.470        3-1     13.321 /_  122.4    1.0682
N1136663 ........... 1       7.4592 /_  -31.0    1.0361    12.470        1-2     12.766 /_   -0.2    1.0237
   -                 2       7.4253 /_ -149.1    1.0313    12.470        2-3     12.544 /_ -116.8     1.006
   -                 3       7.4284 /_   95.6    1.0318    12.470        3-1     13.303 /_  122.3    1.0668
M1108508 ........... 3       7.5048 /_   95.6    1.0424    12.470
L3097861 ........... 3       7.5047 /_   95.6    1.0424    12.470
M1069560 ........... 2       7.5265 /_ -148.5    1.0454    12.470
L2973153 ........... 1       7.3842 /_  -31.2    1.0256    12.470        1-2     12.662 /_   -0.3    1.0154
   -                 2       7.3769 /_ -149.4    1.0246    12.470        2-3     12.472 /_ -116.8    1.0002
   -                 3       7.4114 /_   95.6    1.0294    12.470        3-1     13.233 /_  122.2    1.0612
N1136998 ........... 1       7.3837 /_  -31.2    1.0256    12.470        1-2     12.661 /_   -0.3    1.0153
   -                 2       7.3763 /_ -149.4    1.0246    12.470        2-3     12.472 /_ -116.8    1.0001
   -                 3       7.4115 /_   95.6    1.0294    12.470        3-1     13.233 /_  122.1    1.0611
L2898515 ........... 3       7.5844 /_   92.2    1.0535    12.470
M1166387 ........... 3       7.5843 /_   92.2    1.0534    12.470
M1047442 ........... 2       7.2702 /_ -149.7    1.0098    12.470
L3235250 ........... 2       7.2701 /_ -149.7    1.0098    12.470
M1142871 ........... 1        7.446 /_  -28.7    1.0342    12.470        1-2     13.009 /_    2.2    1.0432
   -                 2       7.6475 /_ -147.7    1.0622    12.470        2-3     13.123 /_ -117.3    1.0524
   -                 3       7.5886 /_   93.3     1.054    12.470        3-1     13.151 /_  122.0    1.0546
M1142874 ........... 1       7.4432 /_  -28.7    1.0338    12.470        1-2     13.007 /_    2.3    1.0431
   -                 2       7.6484 /_ -147.7    1.0623    12.470        2-3     13.122 /_ -117.3    1.0523
   -                 3       7.5884 /_   93.4     1.054    12.470        3-1      13.15 /_  122.0    1.0545
L2955081 ........... 1       7.5255 /_  -28.9    1.0453    12.470        1-2     13.055 /_    1.7    1.0469
   -                 2       7.6121 /_ -148.1    1.0573    12.470        2-3     13.143 /_ -118.0     1.054
   -                 3       7.5912 /_   92.3    1.0544    12.470        3-1     13.169 /_  121.5     1.056
M1108315 ........... 1       7.5268 /_  -28.9    1.0455    12.470        1-2     13.055 /_    1.7    1.0469
   -                 2       7.6114 /_ -148.1    1.0572    12.470        2-3     13.143 /_ -118.0     1.054
   -                 3       7.5909 /_   92.2    1.0544    12.470        3-1     13.168 /_  121.5     1.056
L2973162 ........... 1       7.3894 /_  -30.5    1.0264    12.470        1-2     12.744 /_   -0.4     1.022
   -                 2       7.3461 /_ -150.2    1.0204    12.470        2-3     12.836 /_ -119.4    1.0294
   -                 3       7.5347 /_   90.6    1.0466    12.470        3-1     12.993 /_  119.7     1.042
M1026333 ........... 1       7.3891 /_  -30.5    1.0263    12.470        1-2     12.742 /_   -0.4    1.0218
   -                 2       7.3442 /_ -150.2    1.0201    12.470        2-3     12.835 /_ -119.4    1.0293
   -                 3       7.5352 /_   90.6    1.0466    12.470        3-1     12.993 /_  119.7    1.0419
M1009832 ........... 2       7.3072 /_ -149.9     1.015    12.470
L2860479 ........... 2       7.3072 /_ -149.9    1.0149    12.470
M1026854 ........... 1       7.3351 /_  -31.5    1.0188    12.470        1-2     12.625 /_   -0.4    1.0124
   -                 2       7.3958 /_ -149.5    1.0273    12.470        2-3     12.465 /_ -116.9    0.9996
   -                 3       7.4029 /_   95.7    1.0282    12.470        3-1     13.204 /_  122.0    1.0589
P901894 ............ 1       7.3349 /_  -31.5    1.0188    12.470
M1026485 ........... 2       7.4033 /_ -150.1    1.0283    12.470
M1026492 ........... 2       7.4032 /_ -150.1    1.0283    12.470
D6413567-3_INT ..... 1        7.488 /_  -30.0    1.0401    12.470        1-2     12.921 /_    0.3    1.0362
   -                 2       7.4808 /_ -149.3    1.0391    12.470        2-3     12.962 /_ -119.1    1.0395
   -                 3       7.5174 /_   91.1    1.0441    12.470        3-1     13.063 /_  120.5    1.0476
E182724 ............ 1        7.488 /_  -30.0    1.0401    12.470        1-2     12.921 /_    0.3    1.0362
   -                 2       7.4808 /_ -149.3    1.0391    12.470        2-3     12.962 /_ -119.1    1.0395
   -                 3       7.5174 /_   91.1    1.0441    12.470        3-1     13.063 /_  120.5    1.0476
N1139541 ........... 1       7.4886 /_  -30.0    1.0402    12.470        1-2     12.922 /_    0.3    1.0362
   -                 2       7.4814 /_ -149.3    1.0392    12.470        2-3     12.963 /_ -119.0    1.0395
   -                 3       7.5172 /_   91.1    1.0441    12.470        3-1     13.063 /_  120.5    1.0476
M4122658 ........... 1       7.3078 /_  -28.2     1.015    12.470        1-2     12.922 /_    3.3    1.0362
   -                 2        7.699 /_ -147.0    1.0694    12.470        2-3     13.093 /_ -116.2      1.05
   -                 3       7.5893 /_   95.2    1.0541    12.470        3-1     13.112 /_  122.9    1.0515
L2933135 ........... 1       7.3077 /_  -28.2     1.015    12.470        1-2     12.922 /_    3.3    1.0362
   -                 2        7.699 /_ -147.0    1.0694    12.470        2-3     13.093 /_ -116.2      1.05
   -                 3       7.5893 /_   95.2    1.0541    12.470        3-1     13.112 /_  122.9    1.0515
L2729414 ........... 1       7.2807 /_  -31.4    1.0113    12.470        1-2     12.577 /_    0.0    1.0086
   -                 2        7.403 /_ -149.2    1.0283    12.470        2-3      12.45 /_ -116.8   0.99836
   -                 3       7.3585 /_   95.8    1.0221    12.470        3-1      13.11 /_  122.0    1.0513
   -                 4   2.2827E-023 /_  110.2 3.1706E-024    12.470
L2729430 ........... 2        7.333 /_ -149.8    1.0185    12.470
L2766742 ........... 2       7.3281 /_ -149.8    1.0179    12.470
M1026972 ........... 2       7.2744 /_ -149.6    1.0104    12.470
L2860483 ........... 2       7.2742 /_ -149.6    1.0104    12.470
L2860490 ........... 1        7.448 /_  -30.5    1.0345    12.470        1-2      12.85 /_   -0.3    1.0305
   -                 2       7.4258 /_ -150.0    1.0314    12.470        2-3     12.917 /_ -119.5    1.0359
   -                 3       7.5343 /_   90.5    1.0465    12.470        3-1     13.044 /_  119.8    1.0461
L3104134 ........... 1       7.4453 /_  -30.5    1.0341    12.470        1-2     12.846 /_   -0.3    1.0302
   -                 2       7.4233 /_ -150.1    1.0311    12.470        2-3     12.914 /_ -119.5    1.0356
   -                 3       7.5339 /_   90.5    1.0464    12.470        3-1     13.042 /_  119.8    1.0458
   -                 4   2.5236E-024 /_   66.8 3.5052E-025    12.470
M1089144 ........... 1       7.4856 /_  -29.4    1.0397    12.470
P827522 ............ 1       7.4856 /_  -29.4    1.0397    12.470
M1089118 ........... 1       7.5073 /_  -29.7    1.0427    12.470        1-2     12.956 /_    0.6    1.0389
   -                 2       7.5054 /_ -149.0    1.0425    12.470        2-3     12.993 /_ -118.8    1.0419
   -                 3       7.5246 /_   91.3    1.0451    12.470        3-1     13.087 /_  120.8    1.0495
L3048208 ........... 1       7.5072 /_  -29.7    1.0427    12.470        1-2     11.259 /_  -28.0   0.90292
   -                 2        3.762 /_  155.3   0.52253    12.470        2-3 6.4311E-016 /_ -135.0 5.1573E-017
   -                 3        3.762 /_  155.3   0.52253    12.470        3-1     11.259 /_  152.0   0.90292
   -                 4   1.6469E-023 /_  155.3 2.2875E-024    12.470
M1108505 ........... 1       7.2651 /_  -28.1    1.0091    12.470        1-2     12.894 /_    3.5     1.034
   -                 2        7.715 /_ -146.9    1.0716    12.470        2-3     13.086 /_ -115.9    1.0494
   -                 3       7.5919 /_   95.6    1.0545    12.470        3-1     13.103 /_  123.1    1.0507
L2955047 ........... 1       7.2605 /_  -28.2    1.0085    12.470        1-2      12.89 /_    3.5    1.0337
   -                 2       7.7158 /_ -146.9    1.0717    12.470        2-3     13.084 /_ -116.0    1.0493
   -                 3       7.5922 /_   95.6    1.0545    12.470        3-1     13.102 /_  123.0    1.0507
M1089148 ........... 1       7.4844 /_  -29.4    1.0396    12.470
L2766721 ........... 1       7.4843 /_  -29.4    1.0396    12.470
M1026745 ........... 2       7.2448 /_ -149.8    1.0063    12.470
L3029183 ........... 2       7.2446 /_ -149.8    1.0063    12.470
L2710512 ........... 2       7.2592 /_ -149.6    1.0083    12.470
M1047828 ........... 2        7.257 /_ -149.6     1.008    12.470
M1047342 ........... 1       7.4412 /_  -30.5    1.0336    12.470
L3197645 ........... 1       7.4412 /_  -30.5    1.0336    12.470
M1069192 ........... 1       7.4823 /_  -30.0    1.0393    12.470
L3235253 ........... 1       7.4823 /_  -30.0    1.0393    12.470
L3214071 ........... 1       7.4013 /_  -28.5     1.028    12.470        1-2     12.979 /_    2.6    1.0408
   -                 2       7.6627 /_ -147.5    1.0643    12.470        2-3     13.112 /_ -117.0    1.0514
   -                 3        7.587 /_   93.9    1.0538    12.470        3-1     13.136 /_  122.3    1.0534
M1125952 ........... 1       7.3971 /_  -28.5    1.0274    12.470        1-2     12.976 /_    2.6    1.0406
   -                 2       7.6641 /_ -147.5    1.0645    12.470        2-3      13.11 /_ -116.9    1.0514
   -                 3       7.5869 /_   94.0    1.0538    12.470        3-1     13.135 /_  122.3    1.0533
M1027101 ........... 2       7.2563 /_ -149.6    1.0079    12.470
L2860480 ........... 2       7.2561 /_ -149.6    1.0079    12.470
L2710517 ........... 1       7.2405 /_  -31.5    1.0057    12.470
M1026646 ........... 1       7.2395 /_  -31.5    1.0055    12.470
M1069662 ........... 2       7.5069 /_ -148.6    1.0427    12.470
L2935547 ........... 2       7.5068 /_ -148.6    1.0427    12.470
M1026931 ........... 1       7.3214 /_  -31.6    1.0169    12.470
L3216336 ........... 1        7.321 /_  -31.6    1.0169    12.470
L3142049 ........... 1       7.2874 /_  -28.1    1.0122    12.470        1-2      12.91 /_    3.5    1.0353
   -                 2       7.7082 /_ -146.9    1.0707    12.470        2-3      13.09 /_ -116.0    1.0497
   -                 3       7.5904 /_   95.5    1.0543    12.470        3-1     13.108 /_  123.1    1.0511
M1108493 ........... 1       7.2815 /_  -28.0    1.0114    12.470        1-2     12.907 /_    3.5    1.0351
   -                 2       7.7109 /_ -146.8     1.071    12.470        2-3      13.09 /_ -115.9    1.0497
   -                 3       7.5909 /_   95.5    1.0544    12.470        3-1     13.106 /_  123.1     1.051
M1069169 ........... 1       7.4839 /_  -30.0    1.0395    12.470        1-2     12.915 /_    0.3    1.0357
   -                 2       7.4766 /_ -149.4    1.0385    12.470        2-3     12.959 /_ -119.1    1.0392
   -                 3       7.5186 /_   91.0    1.0443    12.470        3-1     13.061 /_  120.4    1.0474
L3010556 ........... 1       7.4815 /_  -30.1    1.0392    12.470        1-2      12.91 /_    0.2    1.0353
   -                 2       7.4731 /_ -149.4     1.038    12.470        2-3     12.956 /_ -119.1     1.039
   -                 3       7.5196 /_   91.0    1.0445    12.470        3-1      13.06 /_  120.4    1.0473
L2991933 ........... 3       7.3973 /_   95.7    1.0275    12.470
L3122837 ........... 3       7.3972 /_   95.7    1.0274    12.470
L2691936 ........... 1       7.3206 /_  -31.6    1.0168    12.470
L2897772 ........... 1       7.4182 /_  -30.5    1.0304    12.470
L3101814 ........... 1       7.4182 /_  -30.5    1.0304    12.470
L2766732 ........... 2       7.4034 /_ -150.1    1.0283    12.470
L2989564 ........... 2        7.507 /_ -148.6    1.0427    12.470
M1126016 ........... 1        7.256 /_  -28.2    1.0078    12.470
L3120534 ........... 1       7.2559 /_  -28.2    1.0078    12.470
M1026330 ........... 1       7.3885 /_  -30.5    1.0262    12.470        1-2     12.739 /_   -0.4    1.0216
   -                 2       7.3403 /_ -150.2    1.0196    12.470        2-3     12.832 /_ -119.4     1.029
   -                 3       7.5361 /_   90.6    1.0467    12.470        3-1     12.993 /_  119.7    1.0419
L2766726 ........... 2       7.3403 /_ -150.2    1.0195    12.470
P901912 ............ 2       7.3908 /_ -149.3    1.0266    12.470
L3195365 ........... 2       7.3908 /_ -149.3    1.0266    12.470
M1108381 ........... 1       7.3223 /_  -28.3    1.0171    12.470        1-2      12.92 /_    3.1    1.0361
   -                 2       7.6781 /_ -147.2    1.0665    12.470        2-3     13.082 /_ -116.4    1.0491
   -                 3       7.5823 /_   94.8    1.0532    12.470        3-1     13.104 /_  122.7    1.0508
L3254237 ........... 1       7.3218 /_  -28.3     1.017    12.470        1-2     12.919 /_    3.1     1.036
   -                 2       7.6778 /_ -147.2    1.0664    12.470        2-3     13.082 /_ -116.4    1.0491
   -                 3       7.5819 /_   94.8    1.0531    12.470        3-1     13.103 /_  122.7    1.0508
L2804262 ........... 1       7.3334 /_  -31.6    1.0186    12.470
L2841639 ........... 1       7.3319 /_  -31.6    1.0184    12.470
N1230123 ........... 2       7.6803 /_ -147.2    1.0668    12.470
L2708744 ........... 2       7.6797 /_ -147.2    1.0667    12.470
M1069519 ........... 1       7.2977 /_  -29.9    1.0136    12.470        1-2     12.761 /_    1.4    1.0234
   -                 2       7.5483 /_ -148.5    1.0484    12.470        2-3     12.779 /_ -116.5    1.0248
   -                 3       7.5247 /_   95.6    1.0452    12.470        3-1     13.179 /_  122.4    1.0569
P901927 ............ 2       7.5483 /_ -148.5    1.0484    12.470
L2897790 ........... 3        7.527 /_   95.6    1.0455    12.470
L2935566 ........... 3       7.5269 /_   95.6    1.0455    12.470
L3216337 ........... 1       7.3213 /_  -31.6    1.0169    12.470
P901931 ............ 3       7.5271 /_   95.6    1.0455    12.470
M1069548 ........... 3        7.527 /_   95.6    1.0455    12.470
M1010013 ........... 1       7.1684 /_  -31.9   0.99568    12.470
L3120503 ........... 1       7.1683 /_  -31.9   0.99566    12.470        1-2      10.75 /_  -30.1   0.86204
   -                 2       3.5918 /_  153.5   0.49889    12.470        2-3 2.2737E-016 /_  -90.0 1.8234E-017
   -                 3       3.5918 /_  153.5   0.49889    12.470        3-1      10.75 /_  149.9   0.86204
   -                 4   1.6635E-023 /_  153.5 2.3105E-024    12.470
M1089145 ........... 1       7.4855 /_  -29.4    1.0397    12.470        1-2     12.972 /_    1.1    1.0402
   -                 2         7.55 /_ -148.6    1.0487    12.470        2-3     13.055 /_ -118.5    1.0469
   -                 3       7.5523 /_   91.7     1.049    12.470        3-1     13.095 /_  121.0    1.0501
L3215385 ........... 1       7.4855 /_  -29.4    1.0397    12.470        1-2     12.972 /_    1.1    1.0402
   -                 2       7.5499 /_ -148.6    1.0487    12.470        2-3     13.055 /_ -118.5    1.0469
   -                 3       7.5522 /_   91.7     1.049    12.470        3-1     13.095 /_  121.0    1.0501
M1026852 ........... 1       7.3284 /_  -31.6    1.0179    12.470        1-2     12.617 /_   -0.4    1.0118
   -                 2       7.3934 /_ -149.5    1.0269    12.470        2-3      12.46 /_ -116.9   0.99922
   -                 3       7.4023 /_   95.7    1.0282    12.470        3-1       13.2 /_  121.9    1.0585
M1069420 ........... 1       7.3295 /_  -31.2     1.018    12.470        1-2     12.584 /_   -0.4    1.0091
   -                 2       7.3248 /_ -149.6    1.0174    12.470        2-3     12.393 /_ -116.9    0.9938
   -                 3       7.3732 /_   95.5    1.0241    12.470        3-1     13.141 /_  122.0    1.0538
L3157708 ........... 3       7.3972 /_   95.6    1.0275    12.470
N1137991 ........... 3       7.3972 /_   95.6    1.0275    12.470
M1108413 ........... 1       7.3247 /_  -28.3    1.0174    12.470
M1108460 ........... 1       7.3237 /_  -28.3    1.0172    12.470
P827532 ............ 1       7.4307 /_  -30.5    1.0321    12.470
M1047326 ........... 1       7.4307 /_  -30.5    1.0321    12.470
E182732 ............ 1       7.3077 /_  -31.3     1.015    12.470        1-2     12.601 /_   -0.1    1.0105
   -                 2       7.4008 /_ -149.2    1.0279    12.470        2-3     12.457 /_ -116.8   0.99898
   -                 3       7.3671 /_   95.7    1.0233    12.470        3-1     13.137 /_  122.1    1.0535
M1026760 ........... 1       7.3071 /_  -31.3    1.0149    12.470        1-2     12.601 /_   -0.1    1.0105
   -                 2       7.4008 /_ -149.2     1.028    12.470        2-3     12.457 /_ -116.8   0.99897
   -                 3       7.3669 /_   95.7    1.0232    12.470        3-1     13.136 /_  122.1    1.0534
L3048205 ........... 3       7.5418 /_   92.1    1.0475    12.470
M1108361 ........... 3       7.5348 /_   92.1    1.0466    12.470
M3036169 ........... 1       7.2429 /_  -31.5     1.006    12.470
L2673317 ........... 1       7.2428 /_  -31.5     1.006    12.470
L3178981 ........... 2       7.4282 /_ -150.0    1.0318    12.470
M1047368 ........... 2       7.4227 /_ -150.0     1.031    12.470
N1136354 ........... 1       7.2968 /_  -29.9    1.0135    12.470        1-2     12.761 /_    1.4    1.0233
   -                 2       7.5466 /_ -148.5    1.0482    12.470        2-3     12.778 /_ -116.5    1.0247
   -                 3       7.5261 /_   95.6    1.0454    12.470        3-1     13.179 /_  122.4    1.0569
L2879794 ........... 1       7.5079 /_  -28.8    1.0428    12.470
M1142811 ........... 1       7.5078 /_  -28.8    1.0428    12.470
M1069565 ........... 2       7.5291 /_ -148.5    1.0458    12.470
L2785536 ........... 2        7.529 /_ -148.5    1.0458    12.470
L3104114 ........... 2        7.318 /_ -149.8    1.0165    12.470
M1009824 ........... 2       7.3159 /_ -149.8    1.0162    12.470
L2745848 ........... 1       7.3435 /_  -31.3      1.02    12.470        1-2     12.611 /_   -0.3    1.0113
   -                 2       7.3563 /_ -149.4    1.0218    12.470        2-3     12.427 /_ -116.9   0.99656
   -                 3       7.3759 /_   95.5    1.0245    12.470        3-1     13.162 /_  122.1    1.0555
L2673308 ........... 1       7.3428 /_  -31.3    1.0199    12.470        1-2     12.609 /_   -0.3    1.0112
   -                 2       7.3546 /_ -149.4    1.0215    12.470        2-3     12.425 /_ -116.9   0.99641
   -                 3       7.3757 /_   95.5    1.0245    12.470        3-1     13.161 /_  122.1    1.0554
L2991939 ........... 1       7.3412 /_  -31.3    1.0197    12.470        1-2     12.606 /_   -0.3    1.0109
   -                 2       7.3513 /_ -149.5    1.0211    12.470        2-3     12.422 /_ -116.9   0.99612
   -                 3       7.3754 /_   95.5    1.0244    12.470        3-1     13.159 /_  122.1    1.0552
L2916606 ........... 3       7.5522 /_   92.2     1.049    12.470
L2822864 ........... 3       7.5522 /_   92.2     1.049    12.470
M1142851 ........... 1       7.4783 /_  -28.8    1.0387    12.470        1-2     13.031 /_    2.0     1.045
   -                 2       7.6366 /_ -147.9    1.0607    12.470        2-3     13.132 /_ -117.6    1.0531
   -                 3       7.5907 /_   92.9    1.0543    12.470        3-1     13.162 /_  121.8    1.0555
196-31070 .......... 1       7.4772 /_  -28.8    1.0386    12.470        1-2      13.03 /_    2.0    1.0449
   -                 2        7.637 /_ -147.9    1.0608    12.470        2-3     13.132 /_ -117.6    1.0531
   -                 3       7.5906 /_   92.9    1.0543    12.470        3-1     13.162 /_  121.8    1.0555
M1209822 ........... 3       7.5374 /_   91.3    1.0469    12.470
M1209823 ........... 3       7.5358 /_   91.3    1.0467    12.470
M1069550 ........... 2       7.5308 /_ -148.5     1.046    12.470
M1069551 ........... 2       7.5306 /_ -148.5     1.046    12.470
L3141397 ........... 2       7.2742 /_ -149.6    1.0104    12.470
L3649299 ........... 1       7.3577 /_  -31.5     1.022    12.470
M3772794 ........... 1       7.3577 /_  -31.5     1.022    12.470
P895106 ............ 2       7.6755 /_ -147.3    1.0661    12.470
L3048887 ........... 2       7.6754 /_ -147.3    1.0661    12.470
M1047824 ........... 2       7.2596 /_ -149.6    1.0083    12.470
M1047834 ........... 2       7.2569 /_ -149.6     1.008    12.470
M1069350 ........... 1       7.3232 /_  -31.2    1.0172    12.470        1-2     12.569 /_   -0.5     1.008
   -                 2       7.3079 /_ -149.7    1.0151    12.470        2-3     12.374 /_ -117.0   0.99229
   -                 3       7.3693 /_   95.4    1.0236    12.470        3-1     13.128 /_  122.0    1.0528
N1144668 ........... 1       7.3232 /_  -31.2    1.0172    12.470        1-2     12.569 /_   -0.5    1.0079
   -                 2       7.3079 /_ -149.7    1.0151    12.470        2-3     12.374 /_ -117.0   0.99228
   -                 3        7.369 /_   95.4    1.0235    12.470        3-1     13.128 /_  122.0    1.0528
L2879072 ........... 2       7.2803 /_ -149.7    1.0112    12.470
M1047441 ........... 2       7.2717 /_ -149.7      1.01    12.470
M1108274 ........... 2       7.4982 /_ -149.0    1.0415    12.470
M1108269 ........... 2       7.4981 /_ -149.0    1.0415    12.470
L3235244 ........... 1       7.3203 /_  -31.2    1.0168    12.470
M1069398 ........... 1       7.3201 /_  -31.2    1.0167    12.470
N1147862 ........... 1        7.276 /_  -31.7    1.0106    12.470
L2685805 ........... 1       7.2759 /_  -31.7    1.0106    12.470        1-2     10.912 /_  -29.9   0.87502
   -                 2       3.6458 /_  153.6    0.5064    12.470        2-3 2.4489E-015 /_  -21.8 1.9638E-016
   -                 3       3.6458 /_  153.6    0.5064    12.470        3-1     10.912 /_  150.1   0.87502
   -                 4   1.6577E-023 /_  153.6 2.3025E-024    12.470
M1069247 ........... 1       7.3226 /_  -31.2    1.0171    12.470
M1069248 ........... 1       7.3223 /_  -31.2    1.0171    12.470
L2786273 ........... 2       7.4979 /_ -149.0    1.0414    12.470
M1108278 ........... 2       7.4977 /_ -149.0    1.0414    12.470
L3254238 ........... 1       7.4142 /_  -30.5    1.0298    12.470        1-2     12.793 /_   -0.4    1.0259
   -                 2       7.3866 /_ -150.1     1.026    12.470        2-3     12.874 /_ -119.5    1.0324
   -                 3         7.53 /_   90.6    1.0459    12.470        3-1     13.012 /_  119.8    1.0434
M1047303 ........... 1       7.4117 /_  -30.5    1.0295    12.470        1-2     12.788 /_   -0.4    1.0255
   -                 2       7.3826 /_ -150.1    1.0254    12.470        2-3     12.869 /_ -119.4     1.032
   -                 3       7.5297 /_   90.6    1.0459    12.470        3-1     13.009 /_  119.8    1.0432
M1047633 ........... 3       7.4082 /_   95.6     1.029    12.470
L2897554 ........... 3       7.4076 /_   95.6    1.0289    12.470
M1069627 ........... 2       7.5065 /_ -148.6    1.0426    12.470
L2897791 ........... 2       7.5061 /_ -148.6    1.0426    12.470
M1089097 ........... 2          7.5 /_ -149.0    1.0417    12.470
M1108270 ........... 2       7.4995 /_ -149.0    1.0417    12.470
N1142101 ........... 1       7.2904 /_  -28.1    1.0126    12.470
L2936214 ........... 1       7.2903 /_  -28.1    1.0126    12.470
L3066810 ........... 3       7.3727 /_   95.5     1.024    12.470
L2897769 ........... 3       7.3717 /_   95.5    1.0239    12.470
M1209758 ........... 2       7.5952 /_ -148.5    1.0549    12.470
M1209753 ........... 2        7.595 /_ -148.5    1.0549    12.470
M1047528 ........... 1       7.4266 /_  -31.2    1.0315    12.470        1-2     12.727 /_   -0.2    1.0206
   -                 2       7.4147 /_ -149.2    1.0299    12.470        2-3      12.52 /_ -116.8     1.004
   -                 3       7.4192 /_   95.6    1.0305    12.470        3-1     13.274 /_  122.2    1.0645
L2858166 ........... 1       7.4262 /_  -31.2    1.0315    12.470        1-2     12.726 /_   -0.2    1.0205
   -                 2       7.4146 /_ -149.3    1.0299    12.470        2-3      12.52 /_ -116.8     1.004
   -                 3       7.4191 /_   95.6    1.0305    12.470        3-1     13.274 /_  122.2    1.0644
M1142843 ........... 1       7.4885 /_  -28.8    1.0401    12.470        1-2     13.038 /_    1.9    1.0455
   -                 2       7.6332 /_ -148.0    1.0602    12.470        2-3     13.135 /_ -117.7    1.0533
   -                 3       7.5915 /_   92.8    1.0544    12.470        3-1     13.166 /_  121.8    1.0558
L3081380 ........... 1       7.4914 /_  -28.8    1.0405    12.470        1-2     13.039 /_    1.9    1.0456
   -                 2       7.6316 /_ -148.0      1.06    12.470        2-3     13.136 /_ -117.7    1.0534
   -                 3       7.5918 /_   92.8    1.0545    12.470        3-1     13.166 /_  121.7    1.0558
L2804272 ........... 2       7.5305 /_ -148.5     1.046    12.470
L2841641 ........... 2       7.5304 /_ -148.5     1.046    12.470
M1069393 ........... 2       7.2948 /_ -149.7    1.0132    12.470
M1069408 ........... 2       7.2917 /_ -149.7    1.0128    12.470
N1142104 ........... 1       7.2715 /_  -28.1      1.01    12.470        1-2       12.9 /_    3.5    1.0345
   -                 2       7.7137 /_ -146.9    1.0714    12.470        2-3     13.087 /_ -115.9    1.0495
   -                 3       7.5915 /_   95.6    1.0544    12.470        3-1     13.104 /_  123.1    1.0509
M1108500 ........... 1       7.2674 /_  -28.1    1.0094    12.470        1-2     12.896 /_    3.5    1.0342
   -                 2       7.7146 /_ -146.9    1.0715    12.470        2-3     13.086 /_ -115.9    1.0494
   -                 3       7.5918 /_   95.6    1.0545    12.470        3-1     13.103 /_  123.1    1.0508
L3216348 ........... 1       7.2199 /_  -31.5    1.0028    12.470
L2841627 ........... 1        7.219 /_  -31.5    1.0027    12.470
L2916599 ........... 1       7.3245 /_  -31.6    1.0174    12.470
M1047447 ........... 2       7.2624 /_ -149.8    1.0087    12.470
L2954349 ........... 2       7.2623 /_ -149.8    1.0087    12.470
L3235246 ........... 2       7.2604 /_ -149.6    1.0085    12.470
M1125911 ........... 2       7.6148 /_ -148.0    1.0577    12.470
L2711224 ........... 2       7.6141 /_ -148.0    1.0576    12.470
N1147863 ........... 3       7.3996 /_   95.7    1.0278    12.470
L3122817 ........... 3       7.3996 /_   95.7    1.0278    12.470
M1186061 ........... 1       7.5399 /_  -29.2    1.0473    12.470        1-2     13.061 /_    1.3    1.0474
   -                 2       7.5962 /_ -148.5    1.0551    12.470        2-3     13.123 /_ -118.3    1.0523
   -                 3       7.5815 /_   91.9     1.053    12.470        3-1     13.163 /_  121.3    1.0556
L2861223 ........... 2       7.5962 /_ -148.5    1.0551    12.470
M1069130 ........... 1        7.454 /_  -30.5    1.0353    12.470
L3085396 ........... 1       7.4538 /_  -30.5    1.0353    12.470
E182730 ............ 1        7.315 /_  -31.3     1.016    12.470
N1142109 ........... 1        7.315 /_  -31.3     1.016    12.470
M1069417 ........... 1       7.3254 /_  -31.2    1.0175    12.470        1-2     12.576 /_   -0.5    1.0085
   -                 2       7.3157 /_ -149.6    1.0161    12.470        2-3     12.383 /_ -116.9   0.99302
   -                 3       7.3731 /_   95.4    1.0241    12.470        3-1     13.136 /_  122.0    1.0534
N1138597 ........... 1       7.3251 /_  -31.2    1.0174    12.470        1-2     12.575 /_   -0.5    1.0084
   -                 2       7.3149 /_ -149.6     1.016    12.470        2-3     12.382 /_ -116.9   0.99296
   -                 3       7.3731 /_   95.4    1.0241    12.470        3-1     13.136 /_  122.0    1.0534
M1026987 ........... 2       7.2702 /_ -149.6    1.0098    12.470
M1026990 ........... 2       7.2694 /_ -149.6    1.0097    12.470
M1142832 ........... 1       7.4975 /_  -28.8    1.0414    12.470        1-2     13.042 /_    1.9    1.0459
   -                 2       7.6282 /_ -148.0    1.0595    12.470        2-3     13.137 /_ -117.7    1.0535
   -                 3       7.5922 /_   92.7    1.0545    12.470        3-1     13.167 /_  121.7    1.0559
L3160865 ........... 1       7.4992 /_  -28.8    1.0416    12.470        1-2     13.043 /_    1.9     1.046
   -                 2       7.6272 /_ -148.0    1.0594    12.470        2-3     13.138 /_ -117.7    1.0535
   -                 3       7.5924 /_   92.7    1.0546    12.470        3-1     13.168 /_  121.7    1.0559
L2673323 ........... 3       7.3972 /_   95.7    1.0275    12.470
M1009809 ........... 3       7.3972 /_   95.7    1.0275    12.470
L2822869 ........... 1       7.3576 /_  -31.2     1.022    12.470        1-2     12.647 /_   -0.1    1.0142
   -                 2       7.3965 /_ -149.2    1.0274    12.470        2-3     12.473 /_ -116.8    1.0002
   -                 3        7.385 /_   95.7    1.0258    12.470        3-1     13.188 /_  122.2    1.0576
M1026808 ........... 1       7.3512 /_  -31.2    1.0211    12.470        1-2     12.641 /_   -0.1    1.0137
   -                 2        7.397 /_ -149.2    1.0274    12.470        2-3      12.47 /_ -116.8         1
   -                 3       7.3821 /_   95.7    1.0253    12.470        3-1     13.181 /_  122.2     1.057
M1047825 ........... 2       7.2539 /_ -149.6    1.0075    12.470
M1069731 ........... 2       7.2534 /_ -149.6    1.0075    12.470
N1140520 ........... 3       7.3821 /_   95.7    1.0253    12.470
L2729410 ........... 3        7.382 /_   95.7    1.0253    12.470
L3178978 ........... 1       7.2358 /_  -31.5     1.005    12.470
M1069384 ........... 1       7.3211 /_  -31.2    1.0169    12.470
L3066805 ........... 1        7.321 /_  -31.2    1.0169    12.470
M4362181 ........... 2       7.2513 /_ -149.8    1.0072    12.470
M1047319 ........... 3       7.5278 /_   90.6    1.0456    12.470
M1047318 ........... 3       7.5277 /_   90.6    1.0456    12.470
L3216358 ........... 1       7.3107 /_  -31.6    1.0154    12.470
M1026826 ........... 1       7.3098 /_  -31.6    1.0153    12.470
M1108276 ........... 2        7.498 /_ -149.0    1.0415    12.470
M1089198 ........... 1       7.3843 /_  -29.1    1.0257    12.470        1-2     12.831 /_    1.9     1.029
...